Version 4
SHEET 1 5148 1288
WIRE 272 -720 208 -720
WIRE 384 -720 272 -720
WIRE 688 -720 384 -720
WIRE 208 -624 208 -720
WIRE 208 -624 -256 -624
WIRE 384 -624 384 -720
WIRE 208 -496 208 -624
WIRE -256 -448 -256 -624
WIRE 32 -336 -144 -336
WIRE 208 -336 208 -432
WIRE 208 -336 96 -336
WIRE 368 -336 208 -336
WIRE 560 -336 432 -336
WIRE 688 -272 688 -720
WIRE 816 -272 768 -272
WIRE 832 -272 816 -272
WIRE 928 -272 912 -272
WIRE 1024 -272 928 -272
WIRE 1136 -272 1024 -272
WIRE 1248 -272 1136 -272
WIRE 1488 -272 1248 -272
WIRE 1024 -240 1024 -272
WIRE 1136 -240 1136 -272
WIRE 1248 -240 1248 -272
WIRE 1488 -240 1488 -272
WIRE -1008 -224 -1088 -224
WIRE -944 -224 -1008 -224
WIRE -848 -224 -944 -224
WIRE -688 -224 -848 -224
WIRE -608 -224 -688 -224
WIRE -528 -224 -608 -224
WIRE -464 -224 -528 -224
WIRE -256 -224 -256 -384
WIRE -256 -224 -384 -224
WIRE 80 -224 -256 -224
WIRE 272 -208 272 -720
WIRE 336 -208 272 -208
WIRE -1088 -144 -1088 -224
WIRE -1008 -144 -1008 -224
WIRE -944 -144 -944 -224
WIRE -848 -144 -848 -224
WIRE 80 -144 80 -224
WIRE 208 -144 208 -336
WIRE 336 -144 336 -208
WIRE 560 -144 560 -336
WIRE 720 -144 560 -144
WIRE 1024 -112 1024 -176
WIRE 1136 -112 1136 -176
WIRE 1136 -112 1024 -112
WIRE 1248 -112 1248 -176
WIRE 1248 -112 1136 -112
WIRE 1488 -112 1488 -160
WIRE 1488 -112 1248 -112
WIRE -608 -96 -608 -224
WIRE -32 -96 -608 -96
WIRE 720 -96 720 -144
WIRE 928 -96 928 -272
WIRE 1120 -96 928 -96
WIRE 1248 -64 1248 -112
WIRE -528 -16 -528 -224
WIRE -144 -16 -144 -336
WIRE -144 -16 -176 -16
WIRE -32 -16 -144 -16
WIRE 560 -16 560 -144
WIRE 560 -16 464 -16
WIRE 928 -16 928 -96
WIRE 1120 -16 1120 -96
WIRE -688 0 -688 -224
WIRE -32 64 -480 64
WIRE 880 64 464 64
WIRE -1088 112 -1088 -80
WIRE -1008 112 -1008 -80
WIRE -1008 112 -1088 112
WIRE -944 112 -944 -80
WIRE -944 112 -1008 112
WIRE -848 112 -848 -64
WIRE -848 112 -944 112
WIRE -688 112 -688 64
WIRE -688 112 -848 112
WIRE -528 144 -528 80
WIRE -240 144 -240 -16
WIRE -240 144 -528 144
WIRE -32 144 -240 144
WIRE 720 144 720 -32
WIRE 720 144 464 144
WIRE 928 144 928 80
WIRE 928 144 720 144
WIRE 1120 144 1120 48
WIRE 1120 144 928 144
WIRE 1296 144 1120 144
WIRE -32 224 -112 224
WIRE 880 224 464 224
WIRE -848 304 -848 112
WIRE -688 304 -848 304
WIRE -32 304 -624 304
WIRE 816 304 816 -272
WIRE 816 304 464 304
WIRE -848 352 -848 304
WIRE -352 352 -848 352
WIRE -256 352 -288 352
WIRE -256 384 -256 352
WIRE -32 384 -256 384
WIRE 544 384 464 384
WIRE -848 416 -848 352
WIRE -560 416 -848 416
WIRE -432 416 -496 416
WIRE -256 416 -256 384
WIRE -256 416 -352 416
WIRE -848 464 -848 416
WIRE -688 464 -848 464
WIRE -32 464 -624 464
WIRE 544 464 544 384
WIRE 544 464 464 464
WIRE 1296 464 1296 144
WIRE -848 544 -848 464
WIRE -32 544 -848 544
WIRE 544 544 544 464
WIRE 544 544 464 544
WIRE -848 592 -848 544
WIRE -416 656 -576 656
WIRE -240 656 -240 144
WIRE -240 656 -416 656
WIRE 352 672 352 608
WIRE 544 672 544 544
WIRE 544 672 352 672
WIRE -416 704 -416 656
WIRE -240 704 -240 656
WIRE 80 752 80 608
WIRE 112 752 80 752
WIRE 208 752 208 608
WIRE 208 752 176 752
WIRE -112 784 -112 224
WIRE -112 784 -192 784
WIRE -416 848 -416 768
WIRE -240 848 -240 800
WIRE -240 848 -416 848
WIRE 80 848 80 752
WIRE 208 848 208 752
WIRE -240 1056 -240 848
WIRE 80 1056 80 928
WIRE 80 1056 -240 1056
WIRE 112 1056 80 1056
WIRE 208 1056 208 928
WIRE 208 1056 192 1056
WIRE 352 1056 352 672
WIRE 352 1056 208 1056
WIRE 352 1120 352 1056
WIRE -240 1184 -240 1056
WIRE 928 1184 928 240
WIRE 928 1184 -240 1184
WIRE -576 1216 -576 656
WIRE 1296 1216 1296 544
WIRE 1296 1216 -576 1216
FLAG -848 592 0
FLAG 384 -624 0
FLAG 352 1120 0
FLAG 1248 -64 0
SYMBOL PowerProducts\\LTC3780 208 224 R0
SYMATTR InstName U1
SYMBOL cap -272 -448 R0
SYMATTR InstName C_F
SYMATTR Value 100n
SYMBOL cap -624 288 R90
WINDOW 0 0 32 VBottom 2
WINDOW 3 32 32 VTop 2
SYMATTR InstName C_STBYMD
SYMATTR Value 100n
SYMBOL cap -624 448 R90
WINDOW 0 0 32 VBottom 2
WINDOW 3 32 32 VTop 2
SYMATTR InstName CSS
SYMATTR Value 100n
SYMBOL cap 224 -432 R180
WINDOW 0 24 56 Left 2
WINDOW 3 24 8 Left 2
SYMATTR InstName C_vcc
SYMATTR Value 4.7µ
SYMATTR SpiceLine V=50 Irms=0 Rser=0 Lser=0 mfg="Murata" pn="GRM31CR71H475KA12" type="X7R"
SYMBOL cap 704 -96 R0
SYMATTR InstName C_A
SYMATTR Value 0.47µ
SYMATTR SpiceLine V=50 Irms=0 Rser=0 Lser=0 mfg="Murata" pn="GCM21BR71H474KA55" type="X7R"
SYMBOL cap -176 -32 R90
WINDOW 0 0 32 VBottom 2
WINDOW 3 32 32 VTop 2
SYMATTR InstName C_B
SYMATTR Value 0.47µ
SYMATTR SpiceLine V=50 Irms=0 Rser=0 Lser=0 mfg="Murata" pn="GCM21BR71H474KA55" type="X7R"
SYMBOL cap -672 0 M0
SYMATTR InstName C_in
SYMATTR Value 22µ
SYMATTR SpiceLine V=25 Irms=0 Rser=0 Lser=0 mfg="Murata" pn="GRM21BR61E226ME44" type="X5R"
SYMBOL ind 1280 448 R0
SYMATTR InstName L1
SYMATTR Value 4.7µ
SYMATTR SpiceLine Ipk=4.4 Rser=0.022 Rpar=3723 Cpar=1.473p mfg="Bourns, Inc." pn="SRU8045A-4R7Y"
SYMBOL schottky 1104 48 M180
WINDOW 0 24 64 Left 2
WINDOW 3 24 0 Left 2
SYMATTR InstName D2
SYMATTR Value MBRS340
SYMATTR Description Diode
SYMATTR Type diode
SYMBOL schottky -400 768 R180
WINDOW 0 24 64 Left 2
WINDOW 3 24 0 Left 2
SYMATTR InstName D1
SYMATTR Value MBRS340
SYMATTR Description Diode
SYMATTR Type diode
SYMBOL schottky 96 -320 M270
WINDOW 0 32 32 VTop 2
WINDOW 3 0 32 VBottom 2
SYMATTR InstName D_B
SYMATTR Value MBRS340
SYMATTR Description Diode
SYMATTR Type diode
SYMBOL schottky 368 -320 R270
WINDOW 0 32 32 VTop 2
WINDOW 3 0 32 VBottom 2
SYMATTR InstName D_A
SYMATTR Value MBRS340
SYMATTR Description Diode
SYMATTR Type diode
SYMBOL res 928 -288 R90
WINDOW 0 0 56 VBottom 2
WINDOW 3 32 56 VTop 2
SYMATTR InstName R2
SYMATTR Value 100k
SYMATTR SpiceLine tol=1 pwr=0.1
SYMBOL res 208 1040 R90
WINDOW 0 0 56 VBottom 2
WINDOW 3 32 56 VTop 2
SYMATTR InstName R_Sense
SYMATTR Value .02
SYMATTR SpiceLine tol=1 pwr=0.5
SYMBOL voltage -848 -160 R0
WINDOW 123 0 0 Left 0
WINDOW 39 0 0 Left 0
SYMATTR InstName V1
SYMATTR Value SINE(10 9 60)
SYMBOL res 64 832 R0
SYMATTR InstName R3
SYMATTR Value 1000
SYMATTR SpiceLine tol=1 pwr=0.1
SYMBOL res 192 832 R0
SYMATTR InstName R4
SYMATTR Value 1k
SYMATTR SpiceLine tol=1 pwr=0.1
SYMBOL cap 176 736 R90
WINDOW 0 0 32 VBottom 2
WINDOW 3 32 32 VTop 2
SYMATTR InstName C1
SYMATTR Value 68p
SYMBOL nmos -192 704 M0
SYMATTR InstName M_B
SYMATTR Value IRF530
SYMBOL nmos -480 -16 M0
SYMATTR InstName M_A
SYMATTR Value IRF530
SYMBOL nmos 880 -16 R0
SYMATTR InstName M_D
SYMATTR Value IRF530
SYMBOL nmos 880 144 R0
SYMATTR InstName M_C
SYMATTR Value IRF530
SYMBOL res -368 -240 R90
WINDOW 0 0 56 VBottom 2
WINDOW 3 32 56 VTop 2
SYMATTR InstName R5
SYMATTR Value 10
SYMATTR SpiceLine tol=1 pwr=0.1
SYMBOL cap -288 336 R90
WINDOW 0 0 32 VBottom 2
WINDOW 3 32 32 VTop 2
SYMATTR InstName C_C2
SYMATTR Value 47p
SYMBOL cap -496 400 R90
WINDOW 0 0 32 VBottom 2
WINDOW 3 32 32 VTop 2
SYMATTR InstName C_C1
SYMATTR Value .01µ
SYMBOL res -336 400 R90
WINDOW 0 0 56 VBottom 2
WINDOW 3 32 56 VTop 2
SYMATTR InstName R6
SYMATTR Value 105k
SYMBOL res 1472 -256 R0
SYMATTR InstName RLoad
SYMATTR Value 10
SYMBOL cap 1120 -240 R0
SYMATTR InstName C3
SYMATTR Value 300µ
SYMBOL cap 1008 -240 R0
SYMATTR InstName C4
SYMATTR Value 3µ
SYMBOL cap -960 -144 R0
SYMATTR InstName C5
SYMATTR Value 3.3µ
SYMBOL cap -1024 -144 R0
SYMATTR InstName C6
SYMATTR Value 3.3µ
SYMBOL cap -1104 -144 R0
SYMATTR InstName C7
SYMATTR Value 3.3µ
SYMBOL cap 1232 -240 R0
SYMATTR InstName C2
SYMATTR Value 47µ
SYMBOL res 784 -288 R90
WINDOW 0 0 56 VBottom 2
WINDOW 3 32 56 VTop 2
SYMATTR InstName R1
SYMATTR Value 6k
TEXT -880 1224 Left 2 !.tran 0 2.4m 0 100u steady
